8500-Node/FromGetYbus.dss
Clear

New Circuit.IEEE8500 pu=1.05 R1=0 X1=0.001 R0=0 X0=0.001
New Linecode.1ph_x4_acsrx4_acsr Nphases=1 Units=km Rmatrix=[1.67466 ] Xmatrix=[0.93456 ] Cmatrix=[6.32285 ]
New Linecode.1ph_xx4_acsr4_acsr Nphases=1 Units=km Rmatrix=[1.67466 ] Xmatrix=[0.93456 ] Cmatrix=[6.32285 ]
New Linecode.1ph_x2_acsrx2_acsr Nphases=1 Units=km Rmatrix=[1.1223 ] Xmatrix=[0.896365 ] Cmatrix=[6.49582 ]
New Linecode.1ph_x4_acsrx4_wpal Nphases=1 Units=km Rmatrix=[1.67723 ] Xmatrix=[0.932411 ] Cmatrix=[6.32285 ]
New Linecode.3ph_h_4_acsr4_acsr4_acsr4_acsr Nphases=3 Units=km Rmatrix=[1.6834 |0.138324 1.67686 |0.142669 0.139294 1.68543 ] Xmatrix=[0.9273 |0.432623 0.932728 |0.412253 0.450469 0.925637 ] Cmatrix=[7.60098 |-1.99751 7.88811 |-1.66797 -2.32489 7.78037 ]
New Linecode.3ph_h_2/0_acsr2/0_acsr2/0_acsr2_acsr Nphases=3 Units=km Rmatrix=[0.66087 |0.137499 0.653999 |0.142066 0.138518 0.663007 ] Xmatrix=[0.869947 |0.388579 0.878528 |0.366115 0.405953 0.8673 ] Cmatrix=[8.3452 |-2.31601 8.72099 |-1.91256 -2.71715 8.57671 ]
New Linecode.1ph_4_wpalxx2_wpal Nphases=1 Units=km Rmatrix=[1.63092 ] Xmatrix=[0.861221 ] Cmatrix=[6.32285 ]
New Linecode.3ph_h_4_acsr2_acsr2_acsr4_wpal Nphases=3 Units=km Rmatrix=[1.68626 |0.141078 1.12824 |0.145566 0.14208 1.1371 ] Xmatrix=[0.924966 |0.430359 0.933765 |0.409898 0.448185 0.926495 ] Cmatrix=[7.63018 |-2.04889 8.18434 |-1.70374 -2.48649 8.06911 ]
New Linecode.1ph_4_acsrxx4_acsr Nphases=1 Units=km Rmatrix=[1.67466 ] Xmatrix=[0.93456 ] Cmatrix=[6.32285 ]
New Linecode.3ph_h_4_acsr4_acsr4_acsr4_wpal Nphases=3 Units=km Rmatrix=[1.68626 |0.141078 1.6795 |0.145566 0.14208 1.68836 ] Xmatrix=[0.924966 |0.430359 0.930531 |0.409898 0.448185 0.923261 ] Cmatrix=[7.60098 |-1.99751 7.88811 |-1.66797 -2.32489 7.78037 ]
New Linecode.1ph_2_acsrxx2_acsr Nphases=1 Units=km Rmatrix=[1.1223 ] Xmatrix=[0.896365 ] Cmatrix=[6.49582 ]
New Linecode.1ph_4_wpalxx4_acsr Nphases=1 Units=km Rmatrix=[1.63124 ] Xmatrix=[0.898979 ] Cmatrix=[6.32285 ]
New Linecode.3ph_h_397_acsr397_acsr397_acsr2/0_acsr Nphases=3 Units=km Rmatrix=[0.270019 |0.109951 0.264634 |0.113538 0.110747 0.271698 ] Xmatrix=[0.695974 |0.33351 0.708729 |0.308271 0.350259 0.692021 ] Cmatrix=[9.13606 |-2.66777 9.62226 |-2.17646 -3.15664 9.43197 ]
New Linecode.1ph_2_acsrxx4_acsr Nphases=1 Units=km Rmatrix=[1.12339 ] Xmatrix=[0.937794 ] Cmatrix=[6.49582 ]
New Linecode.1ph_xx2_acsr2_acsr Nphases=1 Units=km Rmatrix=[1.1223 ] Xmatrix=[0.896365 ] Cmatrix=[6.49582 ]
New Linecode.1ph_xx4_wpal4_wpal Nphases=1 Units=km Rmatrix=[1.63382 ] Xmatrix=[0.89683 ] Cmatrix=[6.32285 ]
New Linecode.1ph_x4_wpalx4_wpal Nphases=1 Units=km Rmatrix=[1.63382 ] Xmatrix=[0.89683 ] Cmatrix=[6.32285 ]
New Linecode.1ph_xx4_wpal4_acsr Nphases=1 Units=km Rmatrix=[1.63124 ] Xmatrix=[0.898979 ] Cmatrix=[6.32285 ]
New Linecode.1ph_x2_acsrx1/0_tpx Nphases=1 Units=km Rmatrix=[1.03207 ] Xmatrix=[0.801436 ] Cmatrix=[6.49582 ]
New Linecode.1ph_4_acsrxx4_wpal Nphases=1 Units=km Rmatrix=[1.67723 ] Xmatrix=[0.932411 ] Cmatrix=[6.32285 ]
New Linecode.1ph_xx4_acsr1/0_tpx Nphases=1 Units=km Rmatrix=[1.58334 ] Xmatrix=[0.798203 ] Cmatrix=[6.32285 ]
New Linecode.3ph_h_4_wpal4_wpal4_wpal4_acsr Nphases=3 Units=km Rmatrix=[1.63999 |0.138324 1.63344 |0.142669 0.139294 1.64202 ] Xmatrix=[0.891719 |0.432623 0.897146 |0.412253 0.450469 0.890056 ] Cmatrix=[7.60098 |-1.99751 7.88811 |-1.66797 -2.32489 7.78037 ]
New Linecode.1ph_x4_wpalx4_acsr Nphases=1 Units=km Rmatrix=[1.63124 ] Xmatrix=[0.898979 ] Cmatrix=[6.32285 ]
New Linecode.1ph_4_wpalxx4_wpal Nphases=1 Units=km Rmatrix=[1.63382 ] Xmatrix=[0.89683 ] Cmatrix=[6.32285 ]
New Linecode.3ph_h_4_wpal4_wpal4_wpal4_wpal Nphases=3 Units=km Rmatrix=[1.64285 |0.141078 1.63609 |0.145566 0.14208 1.64495 ] Xmatrix=[0.889385 |0.430359 0.89495 |0.409898 0.448185 0.88768 ] Cmatrix=[7.60098 |-1.99751 7.88811 |-1.66797 -2.32489 7.78037 ]
New Linecode.3ph_h_2_acsr2_acsr2_acsr2_acsr Nphases=3 Units=km Rmatrix=[1.13148 |0.137499 1.12461 |0.142066 0.138518 1.13362 ] Xmatrix=[0.884886 |0.388579 0.893467 |0.366115 0.405953 0.882239 ] Cmatrix=[7.8835 |-2.11691 8.2026 |-1.7603 -2.4713 8.08174 ]
New Linecode.1ph_4_acsrxx1/0_tpx Nphases=1 Units=km Rmatrix=[1.58334 ] Xmatrix=[0.798203 ] Cmatrix=[6.32285 ]
New Linecode.3ph_h_4_acsr2_acsr2_acsr4_acsr Nphases=3 Units=km Rmatrix=[1.6834 |0.138324 1.12559 |0.142669 0.139294 1.13417 ] Xmatrix=[0.9273 |0.432623 0.935962 |0.412253 0.450469 0.928871 ] Cmatrix=[7.63018 |-2.04889 8.18434 |-1.70374 -2.48649 8.06911 ]
New Linecode.1ph_xx4_acsr4_wpal Nphases=1 Units=km Rmatrix=[1.67723 ] Xmatrix=[0.932411 ] Cmatrix=[6.32285 ]
New Linecode.1ph_4_acsrxx2_acsr Nphases=1 Units=km Rmatrix=[1.67357 ] Xmatrix=[0.893131 ] Cmatrix=[6.32285 ]
New Linecode.1ph_x4_wpalx1/0_tpx Nphases=1 Units=km Rmatrix=[1.53992 ] Xmatrix=[0.762621 ] Cmatrix=[6.32285 ]
New Linecode.1ph_xx4_acsr1/0_acsr Nphases=1 Units=km Rmatrix=[1.65698 ] Xmatrix=[0.855269 ] Cmatrix=[6.32285 ]
New Linecode.1ph_2_acsrxx4_wpal Nphases=1 Units=km Rmatrix=[1.12597 ] Xmatrix=[0.935645 ] Cmatrix=[6.49582 ]
New Linecode.1ph_xx2/0_acsr1/0_tpx Nphases=1 Units=km Rmatrix=[0.561461 ] Xmatrix=[0.786498 ] Cmatrix=[6.76998 ]
New Linecode.2ph_h_2_acsrx2_acsr2_acsr Nphases=2 Units=km Rmatrix=[1.13148 |0.142066 1.13362 ] Xmatrix=[0.884886 |0.366115 0.882239 ] Cmatrix=[7.33718 |-2.39809 7.33718 ]
New Linecode.1ph_2_wpalxx2_wpal Nphases=1 Units=km Rmatrix=[1.16232 ] Xmatrix=[0.900036 ] Cmatrix=[6.49582 ]
New Linecode.1ph_2_acsrxx4/0_tpx Nphases=1 Units=km Rmatrix=[1.07236 ] Xmatrix=[0.807978 ] Cmatrix=[6.49582 ]
New Linecode.3ph_h_397_acsr397_acsr397_acsr4_wpal Nphases=3 Units=km Rmatrix=[0.301838 |0.141078 0.295078 |0.145566 0.14208 0.303936 ] Xmatrix=[0.796484 |0.430359 0.802049 |0.409898 0.448185 0.794778 ] Cmatrix=[9.13606 |-2.66777 9.62226 |-2.17646 -3.15664 9.43197 ]
New Linecode.3ph_h_397_acsr397_acsr397_acsr397_acsr Nphases=3 Units=km Rmatrix=[0.214162 |0.0557957 0.212131 |0.0571636 0.0560892 0.214801 ] Xmatrix=[0.634957 |0.27487 0.652375 |0.246528 0.29092 0.629544 ] Cmatrix=[9.13606 |-2.66777 9.62226 |-2.17646 -3.15664 9.43197 ]
New Linecode.1ph_xx2_acsr1/0_tpx Nphases=1 Units=km Rmatrix=[1.03207 ] Xmatrix=[0.801436 ] Cmatrix=[6.49582 ]
New Linecode.1ph_x4_acsrx2_wpal Nphases=1 Units=km Rmatrix=[1.67434 ] Xmatrix=[0.896802 ] Cmatrix=[6.32285 ]
New Linecode.1ph_x4_acsrx4_dpx Nphases=1 Units=km Rmatrix=[1.6773 ] Xmatrix=[0.932059 ] Cmatrix=[6.32285 ]
New Linecode.3ph_h_2_acsr2_acsr4_acsr4_acsr Nphases=3 Units=km Rmatrix=[1.13214 |0.138324 1.12559 |0.142669 0.139294 1.68543 ] Xmatrix=[0.930534 |0.432623 0.935962 |0.412253 0.450469 0.925637 ] Cmatrix=[7.87088 |-2.13463 8.17773 |-1.70236 -2.38996 7.81573 ]
New Linecode.1ph_4_wpalxx1/0_tpx Nphases=1 Units=km Rmatrix=[1.53992 ] Xmatrix=[0.762621 ] Cmatrix=[6.32285 ]
New Linecode.1ph_x4_acsrx1/0_tpx Nphases=1 Units=km Rmatrix=[1.58334 ] Xmatrix=[0.798203 ] Cmatrix=[6.32285 ]
New Linecode.1ph_4_acsrxx1/0_3w_cs Nphases=1 Units=km Rmatrix=[1.66186 ] Xmatrix=[0.844051 ] Cmatrix=[6.32285 ]
New Linecode.1ph_x2_acsrx4_acsr Nphases=1 Units=km Rmatrix=[1.12339 ] Xmatrix=[0.937794 ] Cmatrix=[6.49582 ]
New Linecode.1ph_x2_acsrx1/0_3w_cs Nphases=1 Units=km Rmatrix=[1.11059 ] Xmatrix=[0.847285 ] Cmatrix=[6.49582 ]
New Linecode.3ph_h_2/0_acsr2/0_acsr2/0_acsr2/0_acsr Nphases=3 Units=km Rmatrix=[0.63257 |0.109951 0.627184 |0.113538 0.110747 0.634249 ] Xmatrix=[0.812752 |0.33351 0.825507 |0.308271 0.350259 0.808799 ] Cmatrix=[8.3452 |-2.31601 8.72099 |-1.91256 -2.71715 8.57671 ]
New Linecode.1ph_2_acsrxx1/0_tpx Nphases=1 Units=km Rmatrix=[1.03207 ] Xmatrix=[0.801436 ] Cmatrix=[6.49582 ]
New Linecode.3ph_h_4_wpal4_wpal4_wpal1/0_tpx Nphases=3 Units=km Rmatrix=[1.54119 |0.0423582 1.54023 |0.043017 0.0424921 1.5415 ] Xmatrix=[0.740322 |0.286955 0.756994 |0.259106 0.303117 0.73514 ] Cmatrix=[7.60098 |-1.99751 7.88811 |-1.66797 -2.32489 7.78037 ]
New Linecode.1ph_x4_wpalx2_acsr Nphases=1 Units=km Rmatrix=[1.63015 ] Xmatrix=[0.85755 ] Cmatrix=[6.32285 ]
New Linecode.3ph_h_2/0_acsr2/0_acsr2/0_acsr2_wpal Nphases=3 Units=km Rmatrix=[0.661672 |0.138291 0.654779 |0.142872 0.139313 0.663816 ] Xmatrix=[0.874001 |0.392488 0.882296 |0.370214 0.409905 0.871444 ] Cmatrix=[8.3452 |-2.31601 8.72099 |-1.91256 -2.71715 8.57671 ]
New Linecode.1ph_xx4_acsr2_acsr Nphases=1 Units=km Rmatrix=[1.67357 ] Xmatrix=[0.893131 ] Cmatrix=[6.32285 ]
New Linecode.1ph_x4_acsrx4_tpx Nphases=1 Units=km Rmatrix=[1.6773 ] Xmatrix=[0.932059 ] Cmatrix=[6.32285 ]
New Linecode.3ph_h_4_acsr4_acsr4_acsr4_tpx Nphases=3 Units=km Rmatrix=[1.68634 |0.141153 1.67957 |0.145647 0.142157 1.68844 ] Xmatrix=[0.92458 |0.429986 0.930171 |0.409508 0.447808 0.922866 ] Cmatrix=[7.60098 |-1.99751 7.88811 |-1.66797 -2.32489 7.78037 ]
New Linecode.1ph_4_acsrxx6_wpal Nphases=1 Units=km Rmatrix=[1.66227 ] Xmatrix=[0.967202 ] Cmatrix=[6.32285 ]
New Linecode.1ph_xx4_acsr4_tpx Nphases=1 Units=km Rmatrix=[1.6773 ] Xmatrix=[0.932059 ] Cmatrix=[6.32285 ]
New Linecode.3ph_h_397_acsr397_acsr397_acsr2/0_wpal Nphases=3 Units=km Rmatrix=[0.270019 |0.109951 0.264634 |0.113538 0.110747 0.271698 ] Xmatrix=[0.695974 |0.33351 0.708729 |0.308271 0.350259 0.692021 ] Cmatrix=[9.13606 |-2.66777 9.62226 |-2.17646 -3.15664 9.43197 ]
New Linecode.1ph_2/0_acsrxx2_acsr Nphases=1 Units=km Rmatrix=[0.651691 ] Xmatrix=[0.881426 ] Cmatrix=[6.76998 ]
New Linecode.3ph_h_2/0_acsr2/0_acsr2/0_acsr4_acsr Nphases=3 Units=km Rmatrix=[0.661525 |0.138324 0.654981 |0.142669 0.139294 0.663555 ] Xmatrix=[0.915595 |0.432623 0.921023 |0.412253 0.450469 0.913932 ] Cmatrix=[8.3452 |-2.31601 8.72099 |-1.91256 -2.71715 8.57671 ]
New Linecode.1ph_xx4_wpal1/0_tpx Nphases=1 Units=km Rmatrix=[1.53992 ] Xmatrix=[0.762621 ] Cmatrix=[6.32285 ]
New Linecode.1ph_xx6_wpal6_wpal Nphases=1 Units=km Rmatrix=[2.50305 ] Xmatrix=[0.974922 ] Cmatrix=[6.1596 ]
New Linecode.1ph_x2_acsrx4_tpx Nphases=1 Units=km Rmatrix=[1.12603 ] Xmatrix=[0.935293 ] Cmatrix=[6.49582 ]
New Linecode.3ph_h_4_acsr4_acsr4_acsr2_wpal Nphases=3 Units=km Rmatrix=[1.68355 |0.138291 1.67665 |0.142872 0.139313 1.68569 ] Xmatrix=[0.885706 |0.392488 0.894001 |0.370214 0.409905 0.883149 ] Cmatrix=[7.60098 |-1.99751 7.88811 |-1.66797 -2.32489 7.78037 ]
New Linecode.1ph_x4_acsrx1/0_3w_cs Nphases=1 Units=km Rmatrix=[1.66186 ] Xmatrix=[0.844051 ] Cmatrix=[6.32285 ]
New Linecode.1ph_xx2_acsr4_dpx Nphases=1 Units=km Rmatrix=[1.12603 ] Xmatrix=[0.935293 ] Cmatrix=[6.49582 ]
New Linecode.1P_1/0_AXNJ_DB Nphases=1 R1=0.95896 X1=0.54128 R0=0.95896 X0=0.54128 C1=25.9235 C0=25.9235 Units=km BaseFreq=60 Normamps=220 Emergamps=220 Faultrate=0.1 Pctperm=20 repair=3
New Linecode.3P_1/0_AXNJ_DB Nphases=3 R1=0.55116 X1=0.20077 R0=1.3504 X0=0.42688 C1=48.6655 C0=48.6655 Units=km BaseFreq=60 Normamps=190 Emergamps=190 Faultrate=0.1 Pctperm=20 repair=3
New Linecode.750_Triplex Nphases=2 Units=kft Rmatrix=[ 0.04974733 0.02342157 | 0.02342157 0.04974733 ] Xmatrix=[ 0.02782436 0.00669472 | 0.00669472 0.02782436 ] Cmatrix=[ 3.00000000 -2.40000000 | -2.40000000 3.00000000 ] Normamps=580
New Linecode.4/0Triplex Nphases=2 Units=kft Rmatrix=[ 0.40995115 0.11809509 | 0.11809509 0.40995115 ] Xmatrix=[ 0.16681819 0.12759250 | 0.12759250 0.16681819 ] Cmatrix=[ 3.00000000 -2.40000000 | -2.40000000 3.00000000 ] Normamps=156
New Line.HVMV_Sub_connector bus1=_HVMV_Sub_LSB bus2=HVMV_Sub_48332 Units=km Length=0.001 R1=0.001 X1=0.01 R0=0.001 X0=0.01 C1=0 C0=0
New Line.LN5502549_1 LineCode=1PH_x4_ACSRx4_ACSR Phases=1 bus1=M1009763.2 bus2=L2673322.2 Units=km Length=0.032176
New Line.LN6259988_1 LineCode=1PH_xx4_ACSR4_ACSR Phases=1 bus1=M1069148.3 bus2=L2673309.3 Units=km Length=0.10723
New Line.LN6077796_1 LineCode=1PH_x4_ACSRx4_ACSR Phases=1 bus1=M1069588.2 bus2=L2804270.2 Units=km Length=0.011446
New Line.LN5835135_2 LineCode=1PH_x4_ACSRx4_ACSR Phases=1 bus1=M3036164.2 bus2=L2935553.2 Units=km Length=0.047752
New Line.LN5896826_1 LineCode=1PH_x2_ACSRx2_ACSR Phases=1 bus1=M1209749.2 bus2=L2748840.2 Units=km Length=0.20318
New Line.LN5714038_1 LineCode=1PH_x4_ACSRx4_WPAL Phases=1 bus1=M1108264.2 bus2=M1108263.2 Units=km Length=0.099994
New Line.LN5653457_1 LineCode=3PH_H_4_ACSR4_ACSR4_ACSR4_ACSR bus1=L3085398 bus2=M1026891 Units=km Length=0.085708
New Line.LN5835173_1 LineCode=3PH_H_2/0_ACSR2/0_ACSR2/0_ACSR2_ACSR bus1=L3216367 bus2=M1069468 Units=km Length=0.041347
New Line.LN6321415_1 LineCode=1PH_x2_ACSRx2_ACSR Phases=1 bus1=M1142800.2 bus2=M1142799.2 Units=km Length=0.093303
New Line.LN5565092_1 LineCode=1PH_xx4_ACSR4_ACSR Phases=1 bus1=M1047592.3 bus2=P827512.3 Units=km Length=0.0036562
New Line.LN6073648_1 LineCode=1PH_4_WPALxx2_WPAL Phases=1 bus1=M1047339.1 bus2=P895104.1 Units=km Length=0.0077397
New Line.LN5774457_1 LineCode=3PH_H_4_ACSR2_ACSR2_ACSR4_WPAL bus1=M1026915 bus2=M1026920 Units=km Length=0.040847
New Line.LN5534966_3 LineCode=1PH_4_ACSRxx4_ACSR Phases=1 bus1=N1138596.1 bus2=L3254207.1 Units=km Length=0.024491
New Line.LN5859996_1 LineCode=1PH_x2_ACSRx2_ACSR Phases=1 bus1=M1069464.2 bus2=P873787.2 Units=km Length=0.0062355
New Line.LN6138610_2 LineCode=3PH_H_4_ACSR4_ACSR4_ACSR4_WPAL bus1=N1144665 bus2=M1047515 Units=km Length=0.027389
New Line.LN6258435_3 LineCode=1PH_2_ACSRxx2_ACSR Phases=1 bus1=N1137002.1 bus2=M1047707.1 Units=km Length=0.092481
New Line.LN5804790_1 LineCode=1PH_xx4_ACSR4_ACSR Phases=1 bus1=L2729406.3 bus2=L2897768.3 Units=km Length=0.19477
New Line.LN6900591_14 LineCode=1PH_2_ACSRxx2_ACSR Phases=1 bus1=L3649301.1 bus2=L3649302.1 Units=km Length=0.06306
New Line.LN6409873_1 LineCode=1PH_x4_ACSRx4_ACSR Phases=1 bus1=L2970842.2 bus2=M1089113.2 Units=km Length=0.071878
New Line.LN6014135_1 LineCode=1PH_4_WPALxx4_ACSR Phases=1 bus1=M1047312.1 bus2=P893163.1 Units=km Length=0.0041446
New Line.LN6077784_1 LineCode=3PH_H_2/0_ACSR2/0_ACSR2/0_ACSR2_ACSR bus1=L2822871 bus2=M1026872 Units=km Length=0.060144
New Line.LN5744338_1 LineCode=1PH_x4_ACSRx4_WPAL Phases=1 bus1=M1026312.2 bus2=L2973163.2 Units=km Length=0.053487
New Line.LN6991381_4 LineCode=1PH_2_ACSRxx2_ACSR Phases=1 bus1=L3728038.1 bus2=L3728039.1 Units=km Length=0.079109
New Line.LN5774480_1 LineCode=1PH_x4_ACSRx4_ACSR Phases=1 bus1=M1069567.2 bus2=M1069582.2 Units=km Length=0.15296
New Line.LN5986938_3 LineCode=1PH_4_ACSRxx4_ACSR Phases=1 bus1=N1140830.1 bus2=L3216351.1 Units=km Length=0.0087396
New Line.LN5894230_1 LineCode=1PH_xx4_ACSR4_ACSR Phases=1 bus1=L2952007.3 bus2=L2861158.3 Units=km Length=0.12655
New Line.LN5683858_3 LineCode=3PH_H_4_ACSR4_ACSR4_ACSR4_ACSR bus1=N1140827 bus2=M1026726 Units=km Length=0.017269
New Line.LN5920279_5 LineCode=3PH_H_397_ACSR397_ACSR397_ACSR2/0_ACSR bus1=L2730106 bus2=N1142099 Units=km Length=0.022369
New Line.LN6439600_1 LineCode=1PH_2_ACSRxx2_ACSR Phases=1 bus1=M1026658.1 bus2=L3172805.1 Units=km Length=0.10668
New Line.LN5589097_1 LineCode=1PH_2_ACSRxx4_ACSR Phases=1 bus1=P895112.1 bus2=L3048962.1 Units=km Length=0.025604
New Line.LN5651975_1 LineCode=3PH_H_4_ACSR4_ACSR4_ACSR4_ACSR bus1=L2991914 bus2=M1047503 Units=km Length=0.03565
New Line.LN5865236_1 LineCode=1PH_4_ACSRxx4_ACSR Phases=1 bus1=M1047751.1 bus2=L2973154.1 Units=km Length=0.0093077
New Line.LN5593232_1 LineCode=1PH_xx2_ACSR2_ACSR Phases=1 bus1=L3010565.3 bus2=L2897775.3 Units=km Length=0.14083
New Line.LN5740283_1 LineCode=1PH_xx4_WPAL4_WPAL Phases=1 bus1=M1125955.3 bus2=M1125957.3 Units=km Length=0.0068261
New Line.LN6106559_1 LineCode=1PH_x4_ACSRx4_ACSR Phases=1 bus1=M1069640.2 bus2=L2804269.2 Units=km Length=0.10115
New Line.LN5714056_3 LineCode=3PH_H_4_ACSR4_ACSR4_ACSR4_WPAL bus1=M1026702 bus2=N1139551 Units=km Length=0.12873
New Line.LN5985355_3 LineCode=1PH_x4_WPALx4_WPAL Phases=1 bus1=N1136355.2 bus2=L2783231.2 Units=km Length=0.072455
New Line.LN5531956_1 LineCode=1PH_2_ACSRxx2_ACSR Phases=1 bus1=L2748143.1 bus2=L3251854.1 Units=km Length=0.067056
New Line.LN5650048_1 LineCode=1PH_x2_ACSRx2_ACSR Phases=1 bus1=M1069610.2 bus2=M1069600.2 Units=km Length=0.06096
New Line.LN6290203_1 LineCode=3PH_H_2/0_ACSR2/0_ACSR2/0_ACSR2_ACSR bus1=M1069424 bus2=L2935549 Units=km Length=0.088596
New Line.LN6134414_1 LineCode=1PH_xx2_ACSR2_ACSR Phases=1 bus1=P895089.3 bus2=L3235242.3 Units=km Length=0.060507
New Line.LN6259998_2 LineCode=1PH_xx2_ACSR2_ACSR Phases=1 bus1=M1026795.3 bus2=N1140522.3 Units=km Length=0.013558
New Line.LN6078767_1 LineCode=3PH_H_397_ACSR397_ACSR397_ACSR2/0_ACSR bus1=L3030199 bus2=M1125934 Units=km Length=0.029295
New Line.LN6017300_1 LineCode=1PH_xx4_WPAL4_WPAL Phases=1 bus1=M1069189.3 bus2=L2860487.3 Units=km Length=0.086987
New Line.LN8979257_2 LineCode=3P_1/0_AXNJ_DB bus1=221_312488 bus2=M1089183 Units=km Length=0.013517
New Line.LN81048109_1 LineCode=1P_1/0_AXNJ_DB Phases=1 bus1=M1108464.2 bus2=L3102286.2 Units=km Length=0.10746
New Line.293471 LineCode=3PH_H_4_ACSR4_ACSR4_ACSR4_ACSR bus1=F739845 bus2=293471 Units=km Length=0.03048
New Line.LN5534965_2 LineCode=1PH_4_ACSRxx4_ACSR Phases=1 bus1=P827499.1 bus2=N1139254.1 Units=km Length=0.0063761
New Line.LN5655683_1 LineCode=1PH_4_ACSRxx4_ACSR Phases=1 bus1=M1026657.1 bus2=M1026656.1 Units=km Length=0.0060105
New Line.LN5686247_1 LineCode=1PH_x4_ACSRx4_ACSR Phases=1 bus1=M1108299.2 bus2=M1108300.2 Units=km Length=0.0067969
New Line.LN6048642_1 LineCode=1PH_x4_WPALx4_WPAL Phases=1 bus1=L3198355.2 bus2=L2805037.2 Units=km Length=0.11082
New Line.LN5928544_3 LineCode=1PH_xx4_WPAL4_ACSR Phases=1 bus1=N1137994.3 bus2=M1069484.3 Units=km Length=0.056371
New Line.LN6108172_1 LineCode=1PH_2_ACSRxx2_ACSR Phases=1 bus1=L2860504.1 bus2=L2860493.1 Units=km Length=0.20838
New Line.LN5532754_1 LineCode=3PH_H_4_ACSR4_ACSR4_ACSR4_WPAL bus1=M1026783 bus2=M1026780 Units=km Length=0.017916
New Line.LN5591834_1 LineCode=1PH_xx2_ACSR2_ACSR Phases=1 bus1=P895111.3 bus2=L2895496.3 Units=km Length=0.069855
New Line.LN6347196_2 LineCode=3PH_H_4_ACSR4_ACSR4_ACSR4_WPAL bus1=N1140819 bus2=M1026700 Units=km Length=0.026931
New Line.LN5532741_1 LineCode=1PH_xx4_WPAL4_WPAL Phases=1 bus1=M1089173.3 bus2=L2935551.3 Units=km Length=0.060858
New Line.LN5804803_1 LineCode=1PH_2_ACSRxx2_ACSR Phases=1 bus1=M1026344.1 bus2=M1026364.1 Units=km Length=0.29465
New Line.LN6169248_1 LineCode=3PH_H_2/0_ACSR2/0_ACSR2/0_ACSR2_ACSR bus1=L2879070 bus2=L3216345 Units=km Length=0.089301
New Line.LN5532786_2 LineCode=1PH_x2_ACSRx1/0_TPX Phases=1 bus1=M1069428.2 bus2=N1139257.2 Units=km Length=0.016477
New Line.LN5744339_1 LineCode=1PH_4_WPALxx4_ACSR Phases=1 bus1=L2991919.1 bus2=M1026361.1 Units=km Length=0.085291
New Line.LN5531255_3 LineCode=1PH_4_ACSRxx4_ACSR Phases=1 bus1=N1147857.1 bus2=M1009742.1 Units=km Length=0.054753
New Line.LN5926308_2 LineCode=3PH_H_4_ACSR4_ACSR4_ACSR4_ACSR bus1=Q14412 bus2=M1047325 Units=km Length=0.033945
New Line.LN5683856_3 LineCode=1PH_4_ACSRxx4_ACSR Phases=1 bus1=N1139263.1 bus2=L3048227.1 Units=km Length=0.025987
New Line.LN6171502_1 LineCode=1PH_4_ACSRxx4_ACSR Phases=1 bus1=P827506.1 bus2=M1069469.1 Units=km Length=0.0070502
New Line.LN5593228_1 LineCode=1PH_x2_ACSRx2_ACSR Phases=1 bus1=M1027019.2 bus2=L2785522.2 Units=km Length=0.060391
New Line.LN6380800_1 LineCode=1PH_x2_ACSRx2_ACSR Phases=1 bus1=L3216338.2 bus2=L2973146.2 Units=km Length=0.058581
New Line.LN6199525_2 LineCode=1PH_4_ACSRxx4_ACSR Phases=1 bus1=M3037452.1 bus2=L2973164.1 Units=km Length=0.071452
New Line.LN5772710_2 LineCode=1PH_4_ACSRxx4_WPAL Phases=1 bus1=L3120376.1 bus2=M1026925.1 Units=km Length=0.089333
New Line.LN8961760_1 LineCode=1P_1/0_AXNJ_DB Phases=1 bus1=M1047612.3 bus2=P828360.3 Units=km Length=0.0053716
New Line.LN6047556_1 LineCode=1PH_xx2_ACSR2_ACSR Phases=1 bus1=M1089195.3 bus2=L3141393.3 Units=km Length=0.11273
New Line.LN6138603_1 LineCode=1PH_x4_ACSRx4_ACSR Phases=1 bus1=M1026946.2 bus2=M1026940.2 Units=km Length=0.12857
New Line.LN6108139_1 LineCode=1PH_x2_ACSRx2_ACSR Phases=1 bus1=M1047471.2 bus2=L3216349.2 Units=km Length=0.0184
New Line.LN6388581_2 LineCode=1PH_4_ACSRxx4_ACSR Phases=1 bus1=M1047401.1 bus2=L2748132.1 Units=km Length=0.056056
New Line.LN5774460_1 LineCode=1PH_2_ACSRxx2_ACSR Phases=1 bus1=L3122820.1 bus2=L3141398.1 Units=km Length=0.059409
New Line.LN5624387_1 LineCode=1PH_xx4_ACSR4_ACSR Phases=1 bus1=M1108360.3 bus2=L3048968.3 Units=km Length=0.054977
New Line.LN6137087_1 LineCode=1PH_xx4_ACSR1/0_TPX Phases=1 bus1=L2801950.3 bus2=M1069224.3 Units=km Length=0.032899
New Line.LN6077809_1 LineCode=1PH_xx2_ACSR2_ACSR Phases=1 bus1=L2766746.3 bus2=M1027073.3 Units=km Length=0.11048
New Line.LN6440079_1 LineCode=1PH_xx2_ACSR2_ACSR Phases=1 bus1=L2895496.3 bus2=M1142873.3 Units=km Length=0.050561
New Line.LN5804794_1 LineCode=1PH_4_ACSRxx4_ACSR Phases=1 bus1=M1069181.1 bus2=L2973151.1 Units=km Length=0.075433
New Line.LN5654484_1 LineCode=1PH_xx4_ACSR4_ACSR Phases=1 bus1=L3179682.3 bus2=L2786274.3 Units=km Length=0.027729
New Line.LN5774465_1 LineCode=1PH_2_ACSRxx2_ACSR Phases=1 bus1=L3066816.1 bus2=M1026667.1 Units=km Length=0.12146
New Line.LN5473349_1 LineCode=3PH_H_397_ACSR397_ACSR397_ACSR2/0_ACSR bus1=M1108529 bus2=M1108532 Units=km Length=0.024809
New Line.LN6169253_1 LineCode=1PH_4_ACSRxx4_ACSR Phases=1 bus1=L2766723.1 bus2=L3122822.1 Units=km Length=0.057158
New Line.LN6350536_1 LineCode=1PH_2_ACSRxx2_ACSR Phases=1 bus1=L2673312.1 bus2=L3235247.1 Units=km Length=0.16625
New Line.LN6048523_1 LineCode=1PH_xx4_WPAL4_ACSR Phases=1 bus1=M1166391.3 bus2=L3254873.3 Units=km Length=0.10617
New Line.LN5594152_1 LineCode=1PH_xx2_ACSR2_ACSR Phases=1 bus1=L2861157.3 bus2=P901951.3 Units=km Length=0.12135
New Line.LN5865248_1 LineCode=3PH_H_4_WPAL4_WPAL4_WPAL4_ACSR bus1=M1047346 bus2=M1047345 Units=km Length=0.043146
New Line.LN6046143_1 LineCode=1PH_x4_WPALx4_ACSR Phases=1 bus1=L2989596.2 bus2=L2822873.2 Units=km Length=0.088615
New Line.LN5803287_1 LineCode=1PH_xx2_ACSR2_ACSR Phases=1 bus1=M1108328.3 bus2=L2875754.3 Units=km Length=0.021267
New Line.LN5589094_1 LineCode=1PH_xx4_ACSR4_ACSR Phases=1 bus1=L2786204.3 bus2=M1209819.3 Units=km Length=0.072044
New Line.LN5954983_1 LineCode=1PH_4_WPALxx4_WPAL Phases=1 bus1=P901972.1 bus2=M1009726.1 Units=km Length=0.090083
New Line.LN5924696_2 LineCode=1PH_2_ACSRxx2_ACSR Phases=1 bus1=M1047702.1 bus2=N1137001.1 Units=km Length=0.042663
New Line.LN6506311_4 LineCode=3PH_H_4_WPAL4_WPAL4_WPAL4_WPAL bus1=L2767340 bus2=M3037449 Units=km Length=0.0019375
New Line.LN5653493_1 LineCode=1PH_x2_ACSRx2_ACSR Phases=1 bus1=M1047457.2 bus2=L2710546.2 Units=km Length=0.04012
New Line.LN5684836_1 LineCode=3PH_H_397_ACSR397_ACSR397_ACSR2/0_ACSR bus1=L2674027 bus2=L2692633 Units=km Length=0.067882
New Line.LN5715016_3 LineCode=1PH_2_ACSRxx2_ACSR Phases=1 bus1=N1142108.1 bus2=L2674051.1 Units=km Length=0.073679
New Line.LN6138614_1 LineCode=3PH_H_4_WPAL4_WPAL4_WPAL4_WPAL bus1=M1069135 bus2=R18242 Units=km Length=0.07099
New Line.LN6077781_2 LineCode=3PH_H_2/0_ACSR2/0_ACSR2/0_ACSR2_ACSR bus1=M1047534 bus2=N1136663 Units=km Length=0.11474
New Line.LN5675121_1 LineCode=1PH_xx2_ACSR2_ACSR Phases=1 bus1=M1108508.3 bus2=L3097861.3 Units=km Length=0.09144
New Line.LN5773046_1 LineCode=1PH_x4_ACSRx4_ACSR Phases=1 bus1=M1069560.2 bus2=M1069567.2 Units=km Length=0.081428
New Line.LN6380809_2 LineCode=3PH_H_4_WPAL4_WPAL4_WPAL4_WPAL bus1=L2973153 bus2=N1136998 Units=km Length=0.010529
New Line.LN6018326_1 LineCode=1PH_xx4_ACSR4_ACSR Phases=1 bus1=L2898515.3 bus2=M1166387.3 Units=km Length=0.059606
New Line.LN5472356_1 LineCode=1PH_x4_WPALx4_WPAL Phases=1 bus1=M1047442.2 bus2=L3235250.2 Units=km Length=0.0645
New Line.LN6139641_1 LineCode=3PH_H_397_ACSR397_ACSR397_ACSR2/0_ACSR bus1=M1142871 bus2=M1142874 Units=km Length=0.038153
New Line.LN6018341_1 LineCode=3PH_H_397_ACSR397_ACSR397_ACSR2/0_ACSR bus1=L2955081 bus2=M1108315 Units=km Length=0.094685
New Line.LN6017302_1 LineCode=3PH_H_4_WPAL4_WPAL4_WPAL4_ACSR bus1=L2973162 bus2=M1026333 Units=km Length=0.053151
New Line.LN6199505_1 LineCode=1PH_x4_ACSRx4_ACSR Phases=1 bus1=M1009832.2 bus2=L2860479.2 Units=km Length=0.036047
New Line.LN5682327_1 LineCode=1PH_4_ACSRxx4_ACSR Phases=1 bus1=M1026854.1 bus2=P901894.1 Units=km Length=0.0059246
New Line.LN6290243_1 LineCode=1PH_x2_ACSRx2_ACSR Phases=1 bus1=M1026485.2 bus2=M1026492.2 Units=km Length=0.065907
New Line.X8223_48332_sw bus1=D6413567_3_INT bus2=E182724 Length=0.001 Switch=FALSE R1=1
New Line.LN6413567_3 LineCode=3PH_H_4_ACSR4_ACSR4_ACSR4_WPAL bus1=N1139541 bus2=D6413567_3_INT Units=km Length=0.014967
New Line.LN5591731_3 LineCode=3PH_H_397_ACSR397_ACSR397_ACSR2/0_ACSR bus1=M4122658 bus2=L2933135 Units=km Length=0.0016692
New Line.LN5653470_1 LineCode=3PH_H_2_ACSR2_ACSR2_ACSR2_ACSR bus1=M1026702 bus2=L2729414 Units=km Length=0.049898
New Line.LN6017316_1 LineCode=1PH_x4_ACSRx4_ACSR Phases=1 bus1=L2729430.2 bus2=L2766742.2 Units=km Length=0.10864
New Line.LN5926299_1 LineCode=1PH_x2_ACSRx2_ACSR Phases=1 bus1=M1026972.2 bus2=L2860483.2 Units=km Length=0.060677
New Line.LN5683831_1 LineCode=3PH_H_4_ACSR4_ACSR4_ACSR4_ACSR bus1=L2860490 bus2=L3104134 Units=km Length=0.063358
New Line.LN6352700_1 LineCode=1PH_2_ACSRxx2_ACSR Phases=1 bus1=M1089144.1 bus2=P827522.1 Units=km Length=0.0025917
New Line.LN6047570_1 LineCode=1PH_4_ACSRxx4_WPAL Phases=1 bus1=M1089118.1 bus2=L3048208.1 Units=km Length=0.045297
New Line.LN5624342_1 LineCode=3PH_H_397_ACSR397_ACSR397_ACSR2/0_ACSR bus1=M1108505 bus2=L2955047 Units=km Length=0.054561
New Line.LN6259992_1 LineCode=1PH_4_ACSRxx1/0_TPX Phases=1 bus1=M1089148.1 bus2=L2766721.1 Units=km Length=0.048405
New Line.LN5841919_1 LineCode=1PH_x2_ACSRx2_ACSR Phases=1 bus1=M1026745.2 bus2=L3029183.2 Units=km Length=0.091017
New Line.LN6380811_1 LineCode=1PH_x4_ACSRx4_ACSR Phases=1 bus1=L2710512.2 bus2=M1047828.2 Units=km Length=0.14522
New Line.LN5683832_1 LineCode=1PH_2_ACSRxx2_ACSR Phases=1 bus1=M1047342.1 bus2=L3197645.1 Units=km Length=0.073698
New Line.LN6077778_1 LineCode=1PH_2_ACSRxx2_ACSR Phases=1 bus1=M1069192.1 bus2=L3235253.1 Units=km Length=0.081542
New Line.LN5561442_2 LineCode=3PH_H_397_ACSR397_ACSR397_ACSR2/0_ACSR bus1=L3214071 bus2=M1125952 Units=km Length=0.053927
New Line.LN6259983_1 LineCode=1PH_x2_ACSRx2_ACSR Phases=1 bus1=M1027101.2 bus2=L2860480.2 Units=km Length=0.16391
New Line.LN5865244_1 LineCode=1PH_4_ACSRxx4_ACSR Phases=1 bus1=L2710517.1 bus2=M1026646.1 Units=km Length=0.048809
New Line.LN6350555_1 LineCode=1PH_x2_ACSRx2_ACSR Phases=1 bus1=M1069662.2 bus2=L2935547.2 Units=km Length=0.061176
New Line.LN5714039_1 LineCode=1PH_4_ACSRxx4_ACSR Phases=1 bus1=M1026931.1 bus2=L3216336.1 Units=km Length=0.049186
New Line.LN5889821_1 LineCode=3PH_H_397_ACSR397_ACSR397_ACSR2/0_ACSR bus1=L3142049 bus2=M1108493 Units=km Length=0.08467
New Line.LN5804791_1 LineCode=3PH_H_4_ACSR4_ACSR4_ACSR4_WPAL bus1=M1069169 bus2=L3010556 Units=km Length=0.073356
New Line.LN5653486_1 LineCode=1PH_xx4_ACSR4_ACSR Phases=1 bus1=L2991933.3 bus2=L3122837.3 Units=km Length=0.083273
New Line.LN5926286_1 LineCode=1PH_4_ACSRxx4_ACSR Phases=1 bus1=L3216336.1 bus2=L2691936.1 Units=km Length=0.066949
New Line.LN6318859_1 LineCode=1PH_4_ACSRxx4_ACSR Phases=1 bus1=L2897772.1 bus2=L3101814.1 Units=km Length=0.056445
New Line.LN5926316_1 LineCode=1PH_x2_ACSRx2_ACSR Phases=1 bus1=L2766732.2 bus2=M1026485.2 Units=km Length=0.013733
New Line.LN5591703_1 LineCode=1PH_x4_ACSRx4_ACSR Phases=1 bus1=L2804269.2 bus2=L2989564.2 Units=km Length=0.062073
New Line.LN5531333_1 LineCode=1PH_4_ACSRxx4_ACSR Phases=1 bus1=M1126016.1 bus2=L3120534.1 Units=km Length=0.035539
New Line.LN6047581_1 LineCode=1PH_x4_WPALx4_WPAL Phases=1 bus1=M1026330.2 bus2=L2766726.2 Units=km Length=0.030088
New Line.LN6349077_1 LineCode=1PH_x2_ACSRx2_ACSR Phases=1 bus1=P901912.2 bus2=L3195365.2 Units=km Length=0.037424
New Line.LN6350574_1 LineCode=3PH_H_4_ACSR2_ACSR2_ACSR4_ACSR bus1=M1108381 bus2=L3254237 Units=km Length=0.075955
New Line.LN6320343_1 LineCode=1PH_4_ACSRxx4_ACSR Phases=1 bus1=L2804262.1 bus2=L2841639.1 Units=km Length=0.074677
New Line.LN81048100_5 LineCode=1P_1/0_AXNJ_DB Phases=1 bus1=N1230123.2 bus2=L2708744.2 Units=km Length=0.055803
New Line.LN6348946_1 LineCode=1PH_x2_ACSRx2_ACSR Phases=1 bus1=M1069519.2 bus2=P901927.2 Units=km Length=0.0082387
New Line.LN5744351_1 LineCode=1PH_xx2_ACSR2_ACSR Phases=1 bus1=L2897790.3 bus2=L2935566.3 Units=km Length=0.070434
New Line.LN5472342_1 LineCode=1PH_2_ACSRxx2_ACSR Phases=1 bus1=M1026931.1 bus2=L3216337.1 Units=km Length=0.056331
New Line.LN5621849_1 LineCode=1PH_xx2_ACSR2_ACSR Phases=1 bus1=P901931.3 bus2=M1069548.3 Units=km Length=0.0048549
New Line.LN6379375_1 LineCode=1PH_2_ACSRxx2_ACSR Phases=1 bus1=M1010013.1 bus2=L3120503.1 Units=km Length=0.054829
New Line.LN6028890_1 LineCode=3PH_H_2_ACSR2_ACSR2_ACSR2_ACSR bus1=M1089145 bus2=L3215385 Units=km Length=0.035966
New Line.LN6380822_1 LineCode=3PH_H_2/0_ACSR2/0_ACSR2/0_ACSR2_ACSR bus1=M1026854 bus2=M1026852 Units=km Length=0.13123
New Line.LN5835131_1 LineCode=3PH_H_2/0_ACSR2/0_ACSR2/0_ACSR2_ACSR bus1=L2935549 bus2=M1069420 Units=km Length=0.096022
New Line.LN5803262_7 LineCode=1PH_xx4_ACSR4_ACSR Phases=1 bus1=L3157708.3 bus2=N1137991.3 Units=km Length=0.014132
New Line.LN81048089_1 LineCode=1P_1/0_AXNJ_DB Phases=1 bus1=M1108413.1 bus2=M1108460.1 Units=km Length=0.1461
New Line.LN6201699_1 LineCode=1PH_2_ACSRxx2_ACSR Phases=1 bus1=P827532.1 bus2=M1047326.1 Units=km Length=0.0072927
New Line.LN5746548_1 LineCode=3PH_H_4_ACSR4_ACSR4_ACSR4_ACSR bus1=E182732 bus2=M1026760 Units=km Length=0.0091804
New Line.LN5835174_1 LineCode=1PH_xx4_ACSR4_WPAL Phases=1 bus1=L3048205.3 bus2=M1108361.3 Units=km Length=0.19593
New Line.LN6505947_4 LineCode=1PH_4_ACSRxx4_WPAL Phases=1 bus1=M3036169.1 bus2=L2673317.1 Units=km Length=0.0025981
New Line.LN5683833_1 LineCode=1PH_x4_ACSRx4_ACSR Phases=1 bus1=L3178981.2 bus2=M1047368.2 Units=km Length=0.2168
New Line.LN5561439_3 LineCode=3PH_H_397_ACSR397_ACSR397_ACSR2/0_ACSR bus1=M1069519 bus2=N1136354 Units=km Length=0.15126
New Line.LN6109190_1 LineCode=1PH_4_ACSRxx4_ACSR Phases=1 bus1=L2879794.1 bus2=M1142811.1 Units=km Length=0.033756
New Line.LN6258435_2 LineCode=1PH_2_ACSRxx2_ACSR Phases=1 bus1=M1047702.1 bus2=N1137002.1 Units=km Length=0.018939
New Line.LN5804819_1 LineCode=1PH_x4_ACSRx4_ACSR Phases=1 bus1=M1069565.2 bus2=L2785536.2 Units=km Length=0.18501
New Line.LN5593215_1 LineCode=1PH_x4_WPALx4_WPAL Phases=1 bus1=L3104114.2 bus2=M1009824.2 Units=km Length=0.055545
New Line.LN5833717_1 LineCode=3PH_H_2/0_ACSR2/0_ACSR2/0_ACSR2_ACSR bus1=L2745848 bus2=L2673308 Units=km Length=0.057554
New Line.LN6199557_1 LineCode=3PH_H_2/0_ACSR2/0_ACSR2/0_ACSR2_ACSR bus1=L2673308 bus2=L2991939 Units=km Length=0.11261
New Line.LN5744332_1 LineCode=1PH_xx4_ACSR4_ACSR Phases=1 bus1=L2916606.3 bus2=L2822864.3 Units=km Length=0.061698
New Line.LN5558790_1 LineCode=3PH_H_397_ACSR397_ACSR397_ACSR2/0_ACSR bus1=M1142851 bus2=196_31070 Units=km Length=0.013856
New Line.LN6078692_1 LineCode=1PH_xx4_ACSR4_ACSR Phases=1 bus1=M1209822.3 bus2=M1209823.3 Units=km Length=0.056983
New Line.LN5956482_1 LineCode=1PH_x4_WPALx4_WPAL Phases=1 bus1=M1069550.2 bus2=M1069551.2 Units=km Length=0.0041484
New Line.LN5593225_1 LineCode=1PH_x2_ACSRx2_ACSR Phases=1 bus1=L2860483.2 bus2=L3141397.2 Units=km Length=0.076051
New Line.LN6900591_26 LineCode=1PH_2_ACSRxx2_ACSR Phases=1 bus1=L3649299.1 bus2=M3772794.1 Units=km Length=0.003879
New Line.LN5952393_1 LineCode=1PH_x4_ACSRx4_ACSR Phases=1 bus1=P895106.2 bus2=L3048887.2 Units=km Length=0.040161
New Line.LN6350531_1 LineCode=1PH_x4_ACSRx4_ACSR Phases=1 bus1=M1047824.2 bus2=M1047834.2 Units=km Length=0.41575
New Line.LN5965099_10 LineCode=3PH_H_2/0_ACSR2/0_ACSR2/0_ACSR2_ACSR bus1=M1069350 bus2=N1144668 Units=km Length=0.026748
New Line.LN6047568_1 LineCode=1PH_x4_WPALx4_ACSR Phases=1 bus1=L2879072.2 bus2=M1047441.2 Units=km Length=0.23035
New Line.LN5926292_1 LineCode=1PH_x2_ACSRx2_ACSR Phases=1 bus1=M1108274.2 bus2=M1108269.2 Units=km Length=0.061288
New Line.LN6380806_1 LineCode=1PH_4_ACSRxx4_ACSR Phases=1 bus1=L3235244.1 bus2=M1069398.1 Units=km Length=0.062896
New Line.LN6341781_3 LineCode=1PH_2_ACSRxx2_ACSR Phases=1 bus1=N1147862.1 bus2=L2685805.1 Units=km Length=0.089366
New Line.LN8979367_1 LineCode=1P_1/0_AXNJ_DB Phases=1 bus1=M1069247.1 bus2=M1069248.1 Units=km Length=0.1228
New Line.LN6018340_1 LineCode=1PH_x4_ACSRx4_ACSR Phases=1 bus1=L2786273.2 bus2=M1108278.2 Units=km Length=0.10799
New Line.LN6380847_1 LineCode=3PH_H_4_ACSR4_ACSR4_ACSR4_ACSR bus1=L3254238 bus2=M1047303 Units=km Length=0.099314
New Line.LN8961797_1 LineCode=1P_1/0_AXNJ_DB Phases=1 bus1=M1047633.3 bus2=L2897554.3 Units=km Length=0.17983
New Line.LN6077797_1 LineCode=1PH_x4_ACSRx4_ACSR Phases=1 bus1=M1069627.2 bus2=L2897791.2 Units=km Length=0.13855
New Line.LN6077773_1 LineCode=1PH_x4_ACSRx4_WPAL Phases=1 bus1=M1089097.2 bus2=M1108270.2 Units=km Length=0.083123
New Line.LN5837496_4 LineCode=1PH_2_ACSRxx2_ACSR Phases=1 bus1=N1142101.1 bus2=L2936214.1 Units=km Length=0.036947
New Line.LN5623392_1 LineCode=1PH_xx4_ACSR4_ACSR Phases=1 bus1=L3066810.3 bus2=L2897769.3 Units=km Length=0.12964
New Line.LN5624380_1 LineCode=1PH_x2_ACSRx2_ACSR Phases=1 bus1=M1209758.2 bus2=M1209753.2 Units=km Length=0.12109
New Line.LN6422809_2 LineCode=3PH_H_2/0_ACSR2/0_ACSR2/0_ACSR2_ACSR bus1=M1047528 bus2=L2858166 Units=km Length=0.0048333
New Line.LN5799561_1 LineCode=3PH_H_397_ACSR397_ACSR397_ACSR2/0_ACSR bus1=M1142843 bus2=L3081380 Units=km Length=0.11059
New Line.LN6229818_1 LineCode=1PH_x2_ACSRx2_ACSR Phases=1 bus1=L2804272.2 bus2=L2841641.2 Units=km Length=0.079463
New Line.LN5593230_1 LineCode=1PH_x4_ACSRx4_ACSR Phases=1 bus1=M1069393.2 bus2=M1069408.2 Units=km Length=0.069802
New Line.LN5563901_3 LineCode=3PH_H_397_ACSR397_ACSR397_ACSR2/0_ACSR bus1=N1142104 bus2=M1108500 Units=km Length=0.045482
New Line.LN6320339_1 LineCode=1PH_4_WPALxx4_WPAL Phases=1 bus1=L3216348.1 bus2=L2841627.1 Units=km Length=0.18832
New Line.LN5986927_1 LineCode=1PH_4_ACSRxx4_ACSR Phases=1 bus1=M1026925.1 bus2=L2916599.1 Units=km Length=0.015577
New Line.LN6047567_1 LineCode=1PH_x4_WPALx4_WPAL Phases=1 bus1=M1047447.2 bus2=L2954349.2 Units=km Length=0.053455
New Line.LN5714047_1 LineCode=1PH_x4_ACSRx4_ACSR Phases=1 bus1=L3235246.2 bus2=L2710512.2 Units=km Length=0.077202
New Line.LN5563934_1 LineCode=1PH_x4_ACSRx4_ACSR Phases=1 bus1=M1125911.2 bus2=L2711224.2 Units=km Length=0.10544
New Line.LN6169249_3 LineCode=1PH_xx4_ACSR4_ACSR Phases=1 bus1=N1147863.3 bus2=L3122817.3 Units=km Length=0.0043955
New Line.LN6230800_1 LineCode=1PH_x4_ACSRx4_ACSR Phases=1 bus1=M1186061.2 bus2=L2861223.2 Units=km Length=0.036471
...
New Reactor.HVMV_Sub_HSB Bus1=SourceBus Bus2=HVMV_Sub_HSB R=0 X=14.7983 Normamps=400 Emergamps=400
New Transformer.HVMV_Sub Buses=[HVMV_Sub_HSB regxfmr_HVMV_Sub_LSB.1.2.3.0] Conns=[delta wye] Phases=3 Windings=2 XHL=15.51 kVAs=[27500  27500] kVs=[115         12.47] sub=y Wdg=1 %R=0.67202 Wdg=2 %R=0.67202
New Transformer.FEEDER_REGA Buses=[regxfmr_HVMV_Sub_LSB.1 _HVMV_Sub_LSB.1] Conns=[wye wye] %Loadloss=0.001 MaxTap=1.1 MinTap=0.9 Phases=1 Ppm_Antifloat=0 Windings=2 XHL=0.1 kVAs=[27500  27500] kVs=[7.2         7.2]
New Transformer.FEEDER_REGB Buses=[regxfmr_HVMV_Sub_LSB.2 _HVMV_Sub_LSB.2] Conns=[wye wye] %Loadloss=0.001 MaxTap=1.1 MinTap=0.9 Phases=1 Ppm_Antifloat=0 Windings=2 XHL=0.1 kVAs=[27500  27500] kVs=[7.2         7.2]
New Transformer.FEEDER_REGC Buses=[regxfmr_HVMV_Sub_LSB.3 _HVMV_Sub_LSB.3] Conns=[wye wye] %Loadloss=0.001 MaxTap=1.1 MinTap=0.9 Phases=1 Ppm_Antifloat=0 Windings=2 XHL=0.1 kVAs=[27500  27500] kVs=[7.2         7.2]
New Transformer.T21396254A %Noloadloss=0.2 Phases=1 %Rs=[0.6         1.2         1.2] Windings=3 XHL=2.04 XHT=2.04 XLT=1.36 %imag=0.5 Wdg=1 Bus=L2804253.1 kV=7.2 kVA=15 Wdg=2 Bus=X2804253A.1.0 kV=0.12 kVA=15 Wdg=3 Bus=X2804253A.0.2 kV=0.12 kVA=15
New Transformer.T5321859B %Noloadloss=0.2 Phases=1 %Rs=[0.6         1.2         1.2] Windings=3 XHL=2.04 XHT=2.04 XLT=1.36 %imag=0.5 Wdg=1 Bus=L3254213.2 kV=7.2 kVA=25 Wdg=2 Bus=X3254213B.1.0 kV=0.12 kVA=25 Wdg=3 Bus=X3254213B.0.2 kV=0.12 kVA=25
New Transformer.T5391741B %Noloadloss=0.2 Phases=1 %Rs=[0.6         1.2         1.2] Windings=3 XHL=2.04 XHT=2.04 XLT=1.36 %imag=0.5 Wdg=1 Bus=L3216339.2 kV=7.2 kVA=25 Wdg=2 Bus=X3216339B.1.0 kV=0.12 kVA=25 Wdg=3 Bus=X3216339B.0.2 kV=0.12 kVA=25
New Transformer.T5293672A %Noloadloss=0.2 Phases=1 %Rs=[0.6         1.2         1.2] Windings=3 XHL=2.04 XHT=2.04 XLT=1.36 %imag=0.5 Wdg=1 Bus=L2954355.1 kV=7.2 kVA=15 Wdg=2 Bus=X2954355A.1.0 kV=0.12 kVA=15 Wdg=3 Bus=X2954355A.0.2 kV=0.12 kVA=15
New Transformer.T21474711C %Noloadloss=0.2 Phases=1 %Rs=[0.6         1.2         1.2] Windings=3 XHL=2.04 XHT=2.04 XLT=1.36 %imag=0.5 Wdg=1 Bus=L2861197.3 kV=7.2 kVA=15 Wdg=2 Bus=X2861197C.1.0 kV=0.12 kVA=15 Wdg=3 Bus=X2861197C.0.2 kV=0.12 kVA=15
New Transformer.T5260488A %Noloadloss=0.2 Phases=1 %Rs=[0.6         1.2         1.2] Windings=3 XHL=2.04 XHT=2.04 XLT=1.36 %imag=0.5 Wdg=1 Bus=L2842379.1 kV=7.2 kVA=37.5 Wdg=2 Bus=X2842379A.1.0 kV=0.12 kVA=37.5 Wdg=3 Bus=X2842379A.0.2 kV=0.12 kVA=37.5
New Transformer.T5391758B %Noloadloss=0.2 Phases=1 %Rs=[0.6         1.2         1.2] Windings=3 XHL=2.04 XHT=2.04 XLT=1.36 %imag=0.5 Wdg=1 Bus=L2841636.2 kV=7.2 kVA=15 Wdg=2 Bus=X2841636B.1.0 kV=0.12 kVA=15 Wdg=3 Bus=X2841636B.0.2 kV=0.12 kVA=15
New Transformer.T228091193A %Noloadloss=0.2 Phases=1 %Rs=[0.6         1.2         1.2] Windings=3 XHL=2.04 XHT=2.04 XLT=1.36 %imag=0.5 Wdg=1 Bus=L3047289.1 kV=7.2 kVA=50 Wdg=2 Bus=X3047289A.1.0 kV=0.12 kVA=50 Wdg=3 Bus=X3047289A.0.2 kV=0.12 kVA=50
New Transformer.T228091193B %Noloadloss=0.2 Phases=1 %Rs=[0.6         1.2         1.2] Windings=3 XHL=2.04 XHT=2.04 XLT=1.36 %imag=0.5 Wdg=1 Bus=L3047289.2 kV=7.2 kVA=50 Wdg=2 Bus=X3047289B.1.0 kV=0.12 kVA=50 Wdg=3 Bus=X3047289B.0.2 kV=0.12 kVA=50
New Transformer.T228091193C %Noloadloss=0.2 Phases=1 %Rs=[0.6         1.2         1.2] Windings=3 XHL=2.04 XHT=2.04 XLT=1.36 %imag=0.5 Wdg=1 Bus=L3047289.3 kV=7.2 kVA=50 Wdg=2 Bus=X3047289C.1.0 kV=0.12 kVA=50 Wdg=3 Bus=X3047289C.0.2 kV=0.12 kVA=50
New Transformer.T5302862C %Noloadloss=0.2 Phases=1 %Rs=[0.6         1.2         1.2] Windings=3 XHL=2.04 XHT=2.04 XLT=1.36 %imag=0.5 Wdg=1 Bus=L3085399.3 kV=7.2 kVA=15 Wdg=2 Bus=X3085399C.1.0 kV=0.12 kVA=15 Wdg=3 Bus=X3085399C.0.2 kV=0.12 kVA=15
New Transformer.T21236413B %Noloadloss=0.2 Phases=1 %Rs=[0.6         1.2         1.2] Windings=3 XHL=2.04 XHT=2.04 XLT=1.36 %imag=0.5 Wdg=1 Bus=L3085391.2 kV=7.2 kVA=50 Wdg=2 Bus=X3085391B.1.0 kV=0.12 kVA=50 Wdg=3 Bus=X3085391B.0.2 kV=0.12 kVA=50
New Transformer.T5302468A %Noloadloss=0.2 Phases=1 %Rs=[0.6         1.2         1.2] Windings=3 XHL=2.04 XHT=2.04 XLT=1.36 %imag=0.5 Wdg=1 Bus=L2897778.1 kV=7.2 kVA=10 Wdg=2 Bus=X2897778A.1.0 kV=0.12 kVA=10 Wdg=3 Bus=X2897778A.0.2 kV=0.12 kVA=10
New Transformer.T5294787A %Noloadloss=0.2 Phases=1 %Rs=[0.6         1.2         1.2] Windings=3 XHL=2.04 XHT=2.04 XLT=1.36 %imag=0.5 Wdg=1 Bus=L3197647.1 kV=7.2 kVA=10 Wdg=2 Bus=X3197647A.1.0 kV=0.12 kVA=10 Wdg=3 Bus=X3197647A.0.2 kV=0.12 kVA=10
New Transformer.T5157715B %Noloadloss=0.2 Phases=1 %Rs=[0.6         1.2         1.2] Windings=3 XHL=2.04 XHT=2.04 XLT=1.36 %imag=0.5 Wdg=1 Bus=L2936275.2 kV=7.2 kVA=10 Wdg=2 Bus=X2936275B.1.0 kV=0.12 kVA=10 Wdg=3 Bus=X2936275B.0.2 kV=0.12 kVA=10
New Transformer.T5355768B %Noloadloss=0.2 Phases=1 %Rs=[0.6         1.2         1.2] Windings=3 XHL=2.04 XHT=2.04 XLT=1.36 %imag=0.5 Wdg=1 Bus=L2729408.2 kV=7.2 kVA=25 Wdg=2 Bus=X2729408B.1.0 kV=0.12 kVA=25 Wdg=3 Bus=X2729408B.0.2 kV=0.12 kVA=25
New Transformer.T5138562A %Noloadloss=0.2 Phases=1 %Rs=[0.6         1.2         1.2] Windings=3 XHL=2.04 XHT=2.04 XLT=1.36 %imag=0.5 Wdg=1 Bus=L2673310.1 kV=7.2 kVA=25 Wdg=2 Bus=X2673310A.1.0 kV=0.12 kVA=25 Wdg=3 Bus=X2673310A.0.2 kV=0.12 kVA=25
New Transformer.T5355934A %Noloadloss=0.2 Phases=1 %Rs=[0.6         1.2         1.2] Windings=3 XHL=2.04 XHT=2.04 XLT=1.36 %imag=0.5 Wdg=1 Bus=L3048212.1 kV=7.2 kVA=10 Wdg=2 Bus=X3048212A.1.0 kV=0.12 kVA=10 Wdg=3 Bus=X3048212A.0.2 kV=0.12 kVA=10
New Transformer.T5293483A %Noloadloss=0.2 Phases=1 %Rs=[0.6         1.2         1.2] Windings=3 XHL=2.04 XHT=2.04 XLT=1.36 %imag=0.5 Wdg=1 Bus=L3104133.1 kV=7.2 kVA=25 Wdg=2 Bus=X3104133A.1.0 kV=0.12 kVA=25 Wdg=3 Bus=X3104133A.0.2 kV=0.12 kVA=25
New Transformer.T21399762A %Noloadloss=0.2 Phases=1 %Rs=[0.6         1.2         1.2] Windings=3 XHL=2.04 XHT=2.04 XLT=1.36 %imag=0.5 Wdg=1 Bus=L2879087.1 kV=7.2 kVA=15 Wdg=2 Bus=X2879087A.1.0 kV=0.12 kVA=15 Wdg=3 Bus=X2879087A.0.2 kV=0.12 kVA=15
New Transformer.T5138650C %Noloadloss=0.2 Phases=1 %Rs=[0.6         1.2         1.2] Windings=3 XHL=2.04 XHT=2.04 XLT=1.36 %imag=0.5 Wdg=1 Bus=L2710510.3 kV=7.2 kVA=10 Wdg=2 Bus=X2710510C.1.0 kV=0.12 kVA=10 Wdg=3 Bus=X2710510C.0.2 kV=0.12 kVA=10
New Transformer.T5323242B %Noloadloss=0.2 Phases=1 %Rs=[0.6         1.2         1.2] Windings=3 XHL=2.04 XHT=2.04 XLT=1.36 %imag=0.5 Wdg=1 Bus=L3122810.2 kV=7.2 kVA=25 Wdg=2 Bus=X3122810B.1.0 kV=0.12 kVA=25 Wdg=3 Bus=X3122810B.0.2 kV=0.12 kVA=25
New Transformer.T28127090C %Noloadloss=0.2 Phases=1 %Rs=[0.6         1.2         1.2] Windings=3 XHL=2.04 XHT=2.04 XLT=1.36 %imag=0.5 Wdg=1 Bus=L2954352.3 kV=7.2 kVA=25 Wdg=2 Bus=X2954352C.1.0 kV=0.12 kVA=25 Wdg=3 Bus=X2954352C.0.2 kV=0.12 kVA=25
New Transformer.T5138769A %Noloadloss=0.2 Phases=1 %Rs=[0.6         1.2         1.2] Windings=3 XHL=2.04 XHT=2.04 XLT=1.36 %imag=0.5 Wdg=1 Bus=L2729411.1 kV=7.2 kVA=10 Wdg=2 Bus=X2729411A.1.0 kV=0.12 kVA=10 Wdg=3 Bus=X2729411A.0.2 kV=0.12 kVA=10
New Transformer.T5338896A %Noloadloss=0.2 Phases=1 %Rs=[0.6         1.2         1.2] Windings=3 XHL=2.04 XHT=2.04 XLT=1.36 %imag=0.5 Wdg=1 Bus=L3178971.1 kV=7.2 kVA=15 Wdg=2 Bus=X3178971A.1.0 kV=0.12 kVA=15 Wdg=3 Bus=X3178971A.0.2 kV=0.12 kVA=15
New Transformer.T5355586B %Noloadloss=0.2 Phases=1 %Rs=[0.6         1.2         1.2] Windings=3 XHL=2.04 XHT=2.04 XLT=1.36 %imag=0.5 Wdg=1 Bus=L3254234.2 kV=7.2 kVA=25 Wdg=2 Bus=X3254234B.1.0 kV=0.12 kVA=25 Wdg=3 Bus=X3254234B.0.2 kV=0.12 kVA=25
New Transformer.T5293471A %Noloadloss=0.2 Phases=1 %Rs=[0.6         1.2         1.2] Windings=3 XHL=2.04 XHT=2.04 XLT=1.36 %imag=0.5 Wdg=1 Bus=293471.1 kV=7.2 kVA=25 Wdg=2 Bus=X_293471A.1.0 kV=0.12 kVA=25 Wdg=3 Bus=X_293471A.0.2 kV=0.12 kVA=25
New Transformer.T5293471B %Noloadloss=0.2 Phases=1 %Rs=[0.6         1.2         1.2] Windings=3 XHL=2.04 XHT=2.04 XLT=1.36 %imag=0.5 Wdg=1 Bus=293471.2 kV=7.2 kVA=25 Wdg=2 Bus=X_293471B.1.0 kV=0.12 kVA=25 Wdg=3 Bus=X_293471B.0.2 kV=0.12 kVA=25
New Transformer.T5293471C %Noloadloss=0.2 Phases=1 %Rs=[0.6         1.2         1.2] Windings=3 XHL=2.04 XHT=2.04 XLT=1.36 %imag=0.5 Wdg=1 Bus=293471.3 kV=7.2 kVA=25 Wdg=2 Bus=X_293471C.1.0 kV=0.12 kVA=25 Wdg=3 Bus=X_293471C.0.2 kV=0.12 kVA=25
New Transformer.T5338954A %Noloadloss=0.2 Phases=1 %Rs=[0.6         1.2         1.2] Windings=3 XHL=2.04 XHT=2.04 XLT=1.36 %imag=0.5 Wdg=1 Bus=L2860482.1 kV=7.2 kVA=25 Wdg=2 Bus=X2860482A.1.0 kV=0.12 kVA=25 Wdg=3 Bus=X2860482A.0.2 kV=0.12 kVA=25
New Transformer.T21459629C %Noloadloss=0.2 Phases=1 %Rs=[0.6         1.2         1.2] Windings=3 XHL=2.04 XHT=2.04 XLT=1.36 %imag=0.5 Wdg=1 Bus=L2763811.3 kV=7.2 kVA=75 Wdg=2 Bus=X2763811C.1.0 kV=0.12 kVA=75 Wdg=3 Bus=X2763811C.0.2 kV=0.12 kVA=75
New Transformer.T5260562A %Noloadloss=0.2 Phases=1 %Rs=[0.6         1.2         1.2] Windings=3 XHL=2.04 XHT=2.04 XLT=1.36 %imag=0.5 Wdg=1 Bus=L3251799.1 kV=7.2 kVA=37.5 Wdg=2 Bus=X3251799A.1.0 kV=0.12 kVA=37.5 Wdg=3 Bus=X3251799A.0.2 kV=0.12 kVA=37.5
New Transformer.T21393486C %Noloadloss=0.2 Phases=1 %Rs=[0.6         1.2         1.2] Windings=3 XHL=2.04 XHT=2.04 XLT=1.36 %imag=0.5 Wdg=1 Bus=L2898526.3 kV=7.2 kVA=15 Wdg=2 Bus=X2898526C.1.0 kV=0.12 kVA=15 Wdg=3 Bus=X2898526C.0.2 kV=0.12 kVA=15
New Transformer.T5293518B %Noloadloss=0.2 Phases=1 %Rs=[0.6         1.2         1.2] Windings=3 XHL=2.04 XHT=2.04 XLT=1.36 %imag=0.5 Wdg=1 Bus=L2897780.2 kV=7.2 kVA=25 Wdg=2 Bus=X2897780B.1.0 kV=0.12 kVA=25 Wdg=3 Bus=X2897780B.0.2 kV=0.12 kVA=25
New Transformer.T226195194C %Noloadloss=0.2 Phases=1 %Rs=[0.6         1.2         1.2] Windings=3 XHL=2.04 XHT=2.04 XLT=1.36 %imag=0.5 Wdg=1 Bus=L3027124.3 kV=7.2 kVA=25 Wdg=2 Bus=X3027124C.1.0 kV=0.12 kVA=25 Wdg=3 Bus=X3027124C.0.2 kV=0.12 kVA=25
New Transformer.T21383494B %Noloadloss=0.2 Phases=1 %Rs=[0.6         1.2         1.2] Windings=3 XHL=2.04 XHT=2.04 XLT=1.36 %imag=0.5 Wdg=1 Bus=L2954361.2 kV=7.2 kVA=25 Wdg=2 Bus=X2954361B.1.0 kV=0.12 kVA=25 Wdg=3 Bus=X2954361B.0.2 kV=0.12 kVA=25
New Transformer.T5251863C %Noloadloss=0.2 Phases=1 %Rs=[0.6         1.2         1.2] Windings=3 XHL=2.04 XHT=2.04 XLT=1.36 %imag=0.5 Wdg=1 Bus=L2745811.3 kV=7.2 kVA=25 Wdg=2 Bus=X2745811C.1.0 kV=0.12 kVA=25 Wdg=3 Bus=X2745811C.0.2 kV=0.12 kVA=25
New Transformer.T5293645A %Noloadloss=0.2 Phases=1 %Rs=[0.6         1.2         1.2] Windings=3 XHL=2.04 XHT=2.04 XLT=1.36 %imag=0.5 Wdg=1 Bus=L2841633.1 kV=7.2 kVA=25 Wdg=2 Bus=X2841633A.1.0 kV=0.12 kVA=25 Wdg=3 Bus=X2841633A.0.2 kV=0.12 kVA=25
New Transformer.T21482431A %Noloadloss=0.2 Phases=1 %Rs=[0.6         1.2         1.2] Windings=3 XHL=2.04 XHT=2.04 XLT=1.36 %imag=0.5 Wdg=1 Bus=L2917359.1 kV=7.2 kVA=15 Wdg=2 Bus=X2917359A.1.0 kV=0.12 kVA=15 Wdg=3 Bus=X2917359A.0.2 kV=0.12 kVA=15
New Transformer.T5293480A %Noloadloss=0.2 Phases=1 %Rs=[0.6         1.2         1.2] Windings=3 XHL=2.04 XHT=2.04 XLT=1.36 %imag=0.5 Wdg=1 Bus=L2748158.1 kV=7.2 kVA=15 Wdg=2 Bus=X2748158A.1.0 kV=0.12 kVA=15 Wdg=3 Bus=X2748158A.0.2 kV=0.12 kVA=15
New Transformer.T21469911A %Noloadloss=0.2 Phases=1 %Rs=[0.6         1.2         1.2] Windings=3 XHL=2.04 XHT=2.04 XLT=1.36 %imag=0.5 Wdg=1 Bus=L2955047.1 kV=7.2 kVA=25 Wdg=2 Bus=X2955047A.1.0 kV=0.12 kVA=25 Wdg=3 Bus=X2955047A.0.2 kV=0.12 kVA=25
New Transformer.T5355432C %Noloadloss=0.2 Phases=1 %Rs=[0.6         1.2         1.2] Windings=3 XHL=2.04 XHT=2.04 XLT=1.36 %imag=0.5 Wdg=1 Bus=L3122837.3 kV=7.2 kVA=37.5 Wdg=2 Bus=X3122837C.1.0 kV=0.12 kVA=37.5 Wdg=3 Bus=X3122837C.0.2 kV=0.12 kVA=37.5
New Transformer.T5323285B %Noloadloss=0.2 Phases=1 %Rs=[0.6         1.2         1.2] Windings=3 XHL=2.04 XHT=2.04 XLT=1.36 %imag=0.5 Wdg=1 Bus=L2804269.2 kV=7.2 kVA=25 Wdg=2 Bus=X2804269B.1.0 kV=0.12 kVA=25 Wdg=3 Bus=X2804269B.0.2 kV=0.12 kVA=25
New Transformer.T226192954C %Noloadloss=0.2 Phases=1 %Rs=[0.6         1.2         1.2] Windings=3 XHL=2.04 XHT=2.04 XLT=1.36 %imag=0.5 Wdg=1 Bus=L3157708.3 kV=7.2 kVA=15 Wdg=2 Bus=X3157708C.1.0 kV=0.12 kVA=15 Wdg=3 Bus=X3157708C.0.2 kV=0.12 kVA=15
New Transformer.T5207292C %Noloadloss=0.2 Phases=1 %Rs=[0.6         1.2         1.2] Windings=3 XHL=2.04 XHT=2.04 XLT=1.36 %imag=0.5 Wdg=1 Bus=L3179682.3 kV=7.2 kVA=15 Wdg=2 Bus=X3179682C.1.0 kV=0.12 kVA=15 Wdg=3 Bus=X3179682C.0.2 kV=0.12 kVA=15
New Transformer.T5337672B %Noloadloss=0.2 Phases=1 %Rs=[0.6         1.2         1.2] Windings=3 XHL=2.04 XHT=2.04 XLT=1.36 %imag=0.5 Wdg=1 Bus=L2822877.2 kV=7.2 kVA=15 Wdg=2 Bus=X2822877B.1.0 kV=0.12 kVA=15 Wdg=3 Bus=X2822877B.0.2 kV=0.12 kVA=15
New Transformer.T5442373C %Noloadloss=0.2 Phases=1 %Rs=[0.6         1.2         1.2] Windings=3 XHL=2.04 XHT=2.04 XLT=1.36 %imag=0.5 Wdg=1 Bus=L3141393.3 kV=7.2 kVA=25 Wdg=2 Bus=X3141393C.1.0 kV=0.12 kVA=25 Wdg=3 Bus=X3141393C.0.2 kV=0.12 kVA=25
New Transformer.T21470405A %Noloadloss=0.2 Phases=1 %Rs=[0.6         1.2         1.2] Windings=3 XHL=2.04 XHT=2.04 XLT=1.36 %imag=0.5 Wdg=1 Bus=L2897801.1 kV=7.2 kVA=37.5 Wdg=2 Bus=X2897801A.1.0 kV=0.12 kVA=37.5 Wdg=3 Bus=X2897801A.0.2 kV=0.12 kVA=37.5
New Transformer.T5218474A %Noloadloss=0.2 Phases=1 %Rs=[0.6         1.2         1.2] Windings=3 XHL=2.04 XHT=2.04 XLT=1.36 %imag=0.5 Wdg=1 Bus=L3217056.1 kV=7.2 kVA=50 Wdg=2 Bus=X3217056A.1.0 kV=0.12 kVA=50 Wdg=3 Bus=X3217056A.0.2 kV=0.12 kVA=50
New Transformer.T5218472A %Noloadloss=0.2 Phases=1 %Rs=[0.6         1.2         1.2] Windings=3 XHL=2.04 XHT=2.04 XLT=1.36 %imag=0.5 Wdg=1 Bus=L2936270.1 kV=7.2 kVA=25 Wdg=2 Bus=X2936270A.1.0 kV=0.12 kVA=25 Wdg=3 Bus=X2936270A.0.2 kV=0.12 kVA=25
New Transformer.T5356014A %Noloadloss=0.2 Phases=1 %Rs=[0.6         1.2         1.2] Windings=3 XHL=2.04 XHT=2.04 XLT=1.36 %imag=0.5 Wdg=1 Bus=L3235249.1 kV=7.2 kVA=10 Wdg=2 Bus=X3235249A.1.0 kV=0.12 kVA=10 Wdg=3 Bus=X3235249A.0.2 kV=0.12 kVA=10
New Transformer.T5260528C %Noloadloss=0.2 Phases=1 %Rs=[0.6         1.2         1.2] Windings=3 XHL=2.04 XHT=2.04 XLT=1.36 %imag=0.5 Wdg=1 Bus=L3217052.3 kV=7.2 kVA=25 Wdg=2 Bus=X3217052C.1.0 kV=0.12 kVA=25 Wdg=3 Bus=X3217052C.0.2 kV=0.12 kVA=25
New Transformer.T5355933A %Noloadloss=0.2 Phases=1 %Rs=[0.6         1.2         1.2] Windings=3 XHL=2.04 XHT=2.04 XLT=1.36 %imag=0.5 Wdg=1 Bus=L2916598.1 kV=7.2 kVA=10 Wdg=2 Bus=X2916598A.1.0 kV=0.12 kVA=10 Wdg=3 Bus=X2916598A.0.2 kV=0.12 kVA=10
New Transformer.T5138649A %Noloadloss=0.2 Phases=1 %Rs=[0.6         1.2         1.2] Windings=3 XHL=2.04 XHT=2.04 XLT=1.36 %imag=0.5 Wdg=1 Bus=L3048206.1 kV=7.2 kVA=25 Wdg=2 Bus=X3048206A.1.0 kV=0.12 kVA=25 Wdg=3 Bus=X3048206A.0.2 kV=0.12 kVA=25
New Transformer.T5391978C %Noloadloss=0.2 Phases=1 %Rs=[0.6         1.2         1.2] Windings=3 XHL=2.04 XHT=2.04 XLT=1.36 %imag=0.5 Wdg=1 Bus=L3141402.3 kV=7.2 kVA=25 Wdg=2 Bus=X3141402C.1.0 kV=0.12 kVA=25 Wdg=3 Bus=X3141402C.0.2 kV=0.12 kVA=25
New Transformer.T5138642A %Noloadloss=0.2 Phases=1 %Rs=[0.6         1.2         1.2] Windings=3 XHL=2.04 XHT=2.04 XLT=1.36 %imag=0.5 Wdg=1 Bus=L3235256.1 kV=7.2 kVA=15 Wdg=2 Bus=X3235256A.1.0 kV=0.12 kVA=15 Wdg=3 Bus=X3235256A.0.2 kV=0.12 kVA=15
New Transformer.T21149420A %Noloadloss=0.2 Phases=1 %Rs=[0.6         1.2         1.2] Windings=3 XHL=2.04 XHT=2.04 XLT=1.36 %imag=0.5 Wdg=1 Bus=L3178973.1 kV=7.2 kVA=25 Wdg=2 Bus=X3178973A.1.0 kV=0.12 kVA=25 Wdg=3 Bus=X3178973A.0.2 kV=0.12 kVA=25
New Transformer.T21382992A %Noloadloss=0.2 Phases=1 %Rs=[0.6         1.2         1.2] Windings=3 XHL=2.04 XHT=2.04 XLT=1.36 %imag=0.5 Wdg=1 Bus=L3197654.1 kV=7.2 kVA=25 Wdg=2 Bus=X3197654A.1.0 kV=0.12 kVA=25 Wdg=3 Bus=X3197654A.0.2 kV=0.12 kVA=25
New Transformer.T5338958C %Noloadloss=0.2 Phases=1 %Rs=[0.6         1.2         1.2] Windings=3 XHL=2.04 XHT=2.04 XLT=1.36 %imag=0.5 Wdg=1 Bus=L3066809.3 kV=7.2 kVA=25 Wdg=2 Bus=X3066809C.1.0 kV=0.12 kVA=25 Wdg=3 Bus=X3066809C.0.2 kV=0.12 kVA=25
New Transformer.T5355585B %Noloadloss=0.2 Phases=1 %Rs=[0.6         1.2         1.2] Windings=3 XHL=2.04 XHT=2.04 XLT=1.36 %imag=0.5 Wdg=1 Bus=L2766742.2 kV=7.2 kVA=15 Wdg=2 Bus=X2766742B.1.0 kV=0.12 kVA=15 Wdg=3 Bus=X2766742B.0.2 kV=0.12 kVA=15
New Transformer.T5338900A %Noloadloss=0.2 Phases=1 %Rs=[0.6         1.2         1.2] Windings=3 XHL=2.04 XHT=2.04 XLT=1.36 %imag=0.5 Wdg=1 Bus=L2991908.1 kV=7.2 kVA=15 Wdg=2 Bus=X2991908A.1.0 kV=0.12 kVA=15 Wdg=3 Bus=X2991908A.0.2 kV=0.12 kVA=15
New Transformer.T5323389B %Noloadloss=0.2 Phases=1 %Rs=[0.6         1.2         1.2] Windings=3 XHL=2.04 XHT=2.04 XLT=1.36 %imag=0.5 Wdg=1 Bus=L3065750.2 kV=7.2 kVA=25 Wdg=2 Bus=X3065750B.1.0 kV=0.12 kVA=25 Wdg=3 Bus=X3065750B.0.2 kV=0.12 kVA=25
New Transformer.T28127253A %Noloadloss=0.2 Phases=1 %Rs=[0.6         1.2         1.2] Windings=3 XHL=2.04 XHT=2.04 XLT=1.36 %imag=0.5 Wdg=1 Bus=L3085401.1 kV=7.2 kVA=37.5 Wdg=2 Bus=X3085401A.1.0 kV=0.12 kVA=37.5 Wdg=3 Bus=X3085401A.0.2 kV=0.12 kVA=37.5
New Transformer.T21397067A %Noloadloss=0.2 Phases=1 %Rs=[0.6         1.2         1.2] Windings=3 XHL=2.04 XHT=2.04 XLT=1.36 %imag=0.5 Wdg=1 Bus=L2729413.1 kV=7.2 kVA=15 Wdg=2 Bus=X2729413A.1.0 kV=0.12 kVA=15 Wdg=3 Bus=X2729413A.0.2 kV=0.12 kVA=15
New Transformer.T5260520B %Noloadloss=0.2 Phases=1 %Rs=[0.6         1.2         1.2] Windings=3 XHL=2.04 XHT=2.04 XLT=1.36 %imag=0.5 Wdg=1 Bus=L3254915.2 kV=7.2 kVA=5 Wdg=2 Bus=X3254915B.1.0 kV=0.12 kVA=5 Wdg=3 Bus=X3254915B.0.2 kV=0.12 kVA=5
New Transformer.T5323250B %Noloadloss=0.2 Phases=1 %Rs=[0.6         1.2         1.2] Windings=3 XHL=2.04 XHT=2.04 XLT=1.36 %imag=0.5 Wdg=1 Bus=L2748131.2 kV=7.2 kVA=15 Wdg=2 Bus=X2748131B.1.0 kV=0.12 kVA=15 Wdg=3 Bus=X2748131B.0.2 kV=0.12 kVA=15
New Transformer.T5337659C %Noloadloss=0.2 Phases=1 %Rs=[0.6         1.2         1.2] Windings=3 XHL=2.04 XHT=2.04 XLT=1.36 %imag=0.5 Wdg=1 Bus=L3066810.3 kV=7.2 kVA=25 Wdg=2 Bus=X3066810C.1.0 kV=0.12 kVA=25 Wdg=3 Bus=X3066810C.0.2 kV=0.12 kVA=25
New Transformer.T28118903B %Noloadloss=0.2 Phases=1 %Rs=[0.6         1.2         1.2] Windings=3 XHL=2.04 XHT=2.04 XLT=1.36 %imag=0.5 Wdg=1 Bus=L2973146.2 kV=7.2 kVA=25 Wdg=2 Bus=X2973146B.1.0 kV=0.12 kVA=25 Wdg=3 Bus=X2973146B.0.2 kV=0.12 kVA=25
New Transformer.T21398646B %Noloadloss=0.2 Phases=1 %Rs=[0.6         1.2         1.2] Windings=3 XHL=2.04 XHT=2.04 XLT=1.36 %imag=0.5 Wdg=1 Bus=L2973180.2 kV=7.2 kVA=25 Wdg=2 Bus=X2973180B.1.0 kV=0.12 kVA=25 Wdg=3 Bus=X2973180B.0.2 kV=0.12 kVA=25
New Transformer.T5293656B %Noloadloss=0.2 Phases=1 %Rs=[0.6         1.2         1.2] Windings=3 XHL=2.04 XHT=2.04 XLT=1.36 %imag=0.5 Wdg=1 Bus=L2973167.2 kV=7.2 kVA=15 Wdg=2 Bus=X2973167B.1.0 kV=0.12 kVA=15 Wdg=3 Bus=X2973167B.0.2 kV=0.12 kVA=15
New Transformer.T5338910C %Noloadloss=0.2 Phases=1 %Rs=[0.6         1.2         1.2] Windings=3 XHL=2.04 XHT=2.04 XLT=1.36 %imag=0.5 Wdg=1 Bus=L2841621.3 kV=7.2 kVA=25 Wdg=2 Bus=X2841621C.1.0 kV=0.12 kVA=25 Wdg=3 Bus=X2841621C.0.2 kV=0.12 kVA=25
New Transformer.T28129923C %Noloadloss=0.2 Phases=1 %Rs=[0.6         1.2         1.2] Windings=3 XHL=2.04 XHT=2.04 XLT=1.36 %imag=0.5 Wdg=1 Bus=L3123509.3 kV=7.2 kVA=15 Wdg=2 Bus=X3123509C.1.0 kV=0.12 kVA=15 Wdg=3 Bus=X3123509C.0.2 kV=0.12 kVA=15
New Transformer.T5337716A %Noloadloss=0.2 Phases=1 %Rs=[0.6         1.2         1.2] Windings=3 XHL=2.04 XHT=2.04 XLT=1.36 %imag=0.5 Wdg=1 Bus=L2841627.1 kV=7.2 kVA=15 Wdg=2 Bus=X2841627A.1.0 kV=0.12 kVA=15 Wdg=3 Bus=X2841627A.0.2 kV=0.12 kVA=15
New Transformer.T5337698B %Noloadloss=0.2 Phases=1 %Rs=[0.6         1.2         1.2] Windings=3 XHL=2.04 XHT=2.04 XLT=1.36 %imag=0.5 Wdg=1 Bus=L3235250.2 kV=7.2 kVA=10 Wdg=2 Bus=X3235250B.1.0 kV=0.12 kVA=10 Wdg=3 Bus=X3235250B.0.2 kV=0.12 kVA=10
New Transformer.T2224386946A %Noloadloss=0.2 Phases=1 %Rs=[0.6         1.2         1.2] Windings=3 XHL=2.04 XHT=2.04 XLT=1.36 %imag=0.5 Wdg=1 Bus=L3728037.1 kV=7.2 kVA=25 Wdg=2 Bus=X3728037A.1.0 kV=0.12 kVA=25 Wdg=3 Bus=X3728037A.0.2 kV=0.12 kVA=25
New Transformer.T5330121B %Noloadloss=0.2 Phases=1 %Rs=[0.6         1.2         1.2] Windings=3 XHL=2.04 XHT=2.04 XLT=1.36 %imag=0.5 Wdg=1 Bus=L3142078.2 kV=7.2 kVA=10 Wdg=2 Bus=X3142078B.1.0 kV=0.12 kVA=10 Wdg=3 Bus=X3142078B.0.2 kV=0.12 kVA=10
New Transformer.T5323252B %Noloadloss=0.2 Phases=1 %Rs=[0.6         1.2         1.2] Windings=3 XHL=2.04 XHT=2.04 XLT=1.36 %imag=0.5 Wdg=1 Bus=L2879066.2 kV=7.2 kVA=15 Wdg=2 Bus=X2879066B.1.0 kV=0.12 kVA=15 Wdg=3 Bus=X2879066B.0.2 kV=0.12 kVA=15
New Transformer.T5441331C %Noloadloss=0.2 Phases=1 %Rs=[0.6         1.2         1.2] Windings=3 XHL=2.04 XHT=2.04 XLT=1.36 %imag=0.5 Wdg=1 Bus=L3235254.3 kV=7.2 kVA=25 Wdg=2 Bus=X3235254C.1.0 kV=0.12 kVA=25 Wdg=3 Bus=X3235254C.0.2 kV=0.12 kVA=25
New Transformer.T5260474A %Noloadloss=0.2 Phases=1 %Rs=[0.6         1.2         1.2] Windings=3 XHL=2.04 XHT=2.04 XLT=1.36 %imag=0.5 Wdg=1 Bus=L2917330.1 kV=7.2 kVA=25 Wdg=2 Bus=X2917330A.1.0 kV=0.12 kVA=25 Wdg=3 Bus=X2917330A.0.2 kV=0.12 kVA=25
New Transformer.T5355376B %Noloadloss=0.2 Phases=1 %Rs=[0.6         1.2         1.2] Windings=3 XHL=2.04 XHT=2.04 XLT=1.36 %imag=0.5 Wdg=1 Bus=L2914323.2 kV=7.2 kVA=10 Wdg=2 Bus=X2914323B.1.0 kV=0.12 kVA=10 Wdg=3 Bus=X2914323B.0.2 kV=0.12 kVA=10
New Transformer.T5338944C %Noloadloss=0.2 Phases=1 %Rs=[0.6         1.2         1.2] Windings=3 XHL=2.04 XHT=2.04 XLT=1.36 %imag=0.5 Wdg=1 Bus=L3197640.3 kV=7.2 kVA=10 Wdg=2 Bus=X3197640C.1.0 kV=0.12 kVA=10 Wdg=3 Bus=X3197640C.0.2 kV=0.12 kVA=10
New Transformer.T5260640C %Noloadloss=0.2 Phases=1 %Rs=[0.6         1.2         1.2] Windings=3 XHL=2.04 XHT=2.04 XLT=1.36 %imag=0.5 Wdg=1 Bus=L3179673.3 kV=7.2 kVA=15 Wdg=2 Bus=X3179673C.1.0 kV=0.12 kVA=15 Wdg=3 Bus=X3179673C.0.2 kV=0.12 kVA=15
New Transformer.T5274997C %Noloadloss=0.2 Phases=1 %Rs=[0.6         1.2         1.2] Windings=3 XHL=2.04 XHT=2.04 XLT=1.36 %imag=0.5 Wdg=1 Bus=L3048228.3 kV=7.2 kVA=25 Wdg=2 Bus=X3048228C.1.0 kV=0.12 kVA=25 Wdg=3 Bus=X3048228C.0.2 kV=0.12 kVA=25
New Transformer.T5138372C %Noloadloss=0.2 Phases=1 %Rs=[0.6         1.2         1.2] Windings=3 XHL=2.04 XHT=2.04 XLT=1.36 %imag=0.5 Wdg=1 Bus=L3104126.3 kV=7.2 kVA=10 Wdg=2 Bus=X3104126C.1.0 kV=0.12 kVA=10 Wdg=3 Bus=X3104126C.0.2 kV=0.12 kVA=10
New Transformer.T226308721A %Noloadloss=0.2 Phases=1 %Rs=[0.6         1.2         1.2] Windings=3 XHL=2.04 XHT=2.04 XLT=1.36 %imag=0.5 Wdg=1 Bus=L2990098.1 kV=7.2 kVA=50 Wdg=2 Bus=X2990098A.1.0 kV=0.12 kVA=50 Wdg=3 Bus=X2990098A.0.2 kV=0.12 kVA=50
New Transformer.T21380616A %Noloadloss=0.2 Phases=1 %Rs=[0.6         1.2         1.2] Windings=3 XHL=2.04 XHT=2.04 XLT=1.36 %imag=0.5 Wdg=1 Bus=L2879067.1 kV=7.2 kVA=25 Wdg=2 Bus=X2879067A.1.0 kV=0.12 kVA=25 Wdg=3 Bus=X2879067A.0.2 kV=0.12 kVA=25
New Transformer.T226193170A %Noloadloss=0.2 Phases=1 %Rs=[0.6         1.2         1.2] Windings=3 XHL=2.04 XHT=2.04 XLT=1.36 %imag=0.5 Wdg=1 Bus=L3176656.1 kV=7.2 kVA=25 Wdg=2 Bus=X3176656A.1.0 kV=0.12 kVA=25 Wdg=3 Bus=X3176656A.0.2 kV=0.12 kVA=25
New Transformer.T5293666C %Noloadloss=0.2 Phases=1 %Rs=[0.6         1.2         1.2] Windings=3 XHL=2.04 XHT=2.04 XLT=1.36 %imag=0.5 Wdg=1 Bus=L2710532.3 kV=7.2 kVA=10 Wdg=2 Bus=X2710532C.1.0 kV=0.12 kVA=10 Wdg=3 Bus=X2710532C.0.2 kV=0.12 kVA=10
New Transformer.T5338994B %Noloadloss=0.2 Phases=1 %Rs=[0.6         1.2         1.2] Windings=3 XHL=2.04 XHT=2.04 XLT=1.36 %imag=0.5 Wdg=1 Bus=L3160115.2 kV=7.2 kVA=50 Wdg=2 Bus=X3160115B.1.0 kV=0.12 kVA=50 Wdg=3 Bus=X3160115B.0.2 kV=0.12 kVA=50
New Transformer.T228665517C %Noloadloss=0.2 Phases=1 %Rs=[0.6         1.2         1.2] Windings=3 XHL=2.04 XHT=2.04 XLT=1.36 %imag=0.5 Wdg=1 Bus=L3103822.3 kV=7.2 kVA=37.5 Wdg=2 Bus=X3103822C.1.0 kV=0.12 kVA=37.5 Wdg=3 Bus=X3103822C.0.2 kV=0.12 kVA=37.5
New Transformer.T5260647A %Noloadloss=0.2 Phases=1 %Rs=[0.6         1.2         1.2] Windings=3 XHL=2.04 XHT=2.04 XLT=1.36 %imag=0.5 Wdg=1 Bus=L2805034.1 kV=7.2 kVA=10 Wdg=2 Bus=X2805034A.1.0 kV=0.12 kVA=10 Wdg=3 Bus=X2805034A.0.2 kV=0.12 kVA=10
New Transformer.T226115278A %Noloadloss=0.2 Phases=1 %Rs=[0.6         1.2         1.2] Windings=3 XHL=2.04 XHT=2.04 XLT=1.36 %imag=0.5 Wdg=1 Bus=L3157167.1 kV=7.2 kVA=15 Wdg=2 Bus=X3157167A.1.0 kV=0.12 kVA=15 Wdg=3 Bus=X3157167A.0.2 kV=0.12 kVA=15
New Transformer.T5338977A %Noloadloss=0.2 Phases=1 %Rs=[0.6         1.2         1.2] Windings=3 XHL=2.04 XHT=2.04 XLT=1.36 %imag=0.5 Wdg=1 Bus=L2916620.1 kV=7.2 kVA=10 Wdg=2 Bus=X2916620A.1.0 kV=0.12 kVA=10 Wdg=3 Bus=X2916620A.0.2 kV=0.12 kVA=10
New Transformer.T5338977B %Noloadloss=0.2 Phases=1 %Rs=[0.6         1.2         1.2] Windings=3 XHL=2.04 XHT=2.04 XLT=1.36 %imag=0.5 Wdg=1 Bus=L2916620.2 kV=7.2 kVA=10 Wdg=2 Bus=X2916620B.1.0 kV=0.12 kVA=10 Wdg=3 Bus=X2916620B.0.2 kV=0.12 kVA=10
New Transformer.T5338977C %Noloadloss=0.2 Phases=1 %Rs=[0.6         1.2         1.2] Windings=3 XHL=2.04 XHT=2.04 XLT=1.36 %imag=0.5 Wdg=1 Bus=L2916620.3 kV=7.2 kVA=10 Wdg=2 Bus=X2916620C.1.0 kV=0.12 kVA=10 Wdg=3 Bus=X2916620C.0.2 kV=0.12 kVA=10
New Transformer.T5321876A %Noloadloss=0.2 Phases=1 %Rs=[0.6         1.2         1.2] Windings=3 XHL=2.04 XHT=2.04 XLT=1.36 %imag=0.5 Wdg=1 Bus=L3027132.1 kV=7.2 kVA=15 Wdg=2 Bus=X3027132A.1.0 kV=0.12 kVA=15 Wdg=3 Bus=X3027132A.0.2 kV=0.12 kVA=15
New Transformer.T5275001C %Noloadloss=0.2 Phases=1 %Rs=[0.6         1.2         1.2] Windings=3 XHL=2.04 XHT=2.04 XLT=1.36 %imag=0.5 Wdg=1 Bus=L2822862.3 kV=7.2 kVA=15 Wdg=2 Bus=X2822862C.1.0 kV=0.12 kVA=15 Wdg=3 Bus=X2822862C.0.2 kV=0.12 kVA=15
New Transformer.T227411650C %Noloadloss=0.2 Phases=1 %Rs=[0.6         1.2         1.2] Windings=3 XHL=2.04 XHT=2.04 XLT=1.36 %imag=0.5 Wdg=1 Bus=L2937757.3 kV=7.2 kVA=25 Wdg=2 Bus=X2937757C.1.0 kV=0.12 kVA=25 Wdg=3 Bus=X2937757C.0.2 kV=0.12 kVA=25
New Transformer.T21396699B %Noloadloss=0.2 Phases=1 %Rs=[0.6         1.2         1.2] Windings=3 XHL=2.04 XHT=2.04 XLT=1.36 %imag=0.5 Wdg=1 Bus=L2860483.2 kV=7.2 kVA=25 Wdg=2 Bus=X2860483B.1.0 kV=0.12 kVA=25 Wdg=3 Bus=X2860483B.0.2 kV=0.12 kVA=25
New Transformer.T5302412A %Noloadloss=0.2 Phases=1 %Rs=[0.6         1.2         1.2] Windings=3 XHL=2.04 XHT=2.04 XLT=1.36 %imag=0.5 Wdg=1 Bus=L3048210.1 kV=7.2 kVA=37.5 Wdg=2 Bus=X3048210A.1.0 kV=0.12 kVA=37.5 Wdg=3 Bus=X3048210A.0.2 kV=0.12 kVA=37.5
...